/*--------------------------------*- C++ -*----------------------------------*\
| =========                 |                                                 |
| \\      /  F ield         | OpenFOAM: The Open Source CFD Toolbox           |
|  \\    /   O peration     | Version:  2.2.2                                 |
|   \\  /    A nd           | Web:      www.OpenFOAM.org                      |
|    \\/     M anipulation  |                                                 |
\*---------------------------------------------------------------------------*/
FoamFile
{
    version     2.0;
    format      ascii;
    class       dictionary;
    note        "mesh decomposition control dictionary";
    object      decomposeParDict;
}
// * * * * * * * * * * * * * * * * * * * * * * * * * * * * * * * * * * * * * //

numberOfSubDomains  4;
nPressureLevels 2;
nTemperatureLevels 2;

tableGeneratorName generateDefinedPSRTableNOx;
includeSegregation on; 
tableSegregatorName generateSegregatedTableNOx;
purgeTables on;
ADFtableGeneratorName generateADFTable;
// ************************************************************************* //
