/*---------------------------------------------------------------------------*\
| =========                 |                                                 |
| \\      /  F ield         | OpenFOAM: The Open Source CFD Toolbox           |
|  \\    /   O peration     | Version:  1.0                                   |
|   \\  /    A nd           | Web:      http://www.openfoam.org               |
|    \\/     M anipulation  |                                                 |
\*---------------------------------------------------------------------------*/

FoamFile
{
version  			2.0;
format   			ascii;
class 				dictionary;
object 				chemistryProperties;
}
// * * * * * * * * * * * * * * * * * * * * * * * * * * * * * * * * * * * * * //

canteraCaseDir "$FOAM_CASE/..";
canteraTableName "tableH2-Ramognino-HHT";
canteraTablePropertiesName "laminarFlameProperties";
canteraArrayDataDirName "array";

NOxTable off;



// ************************************************************************* //
