// -*- C++ -*-
// File generated by PyFoam - sorry for the ugliness

FoamFile
{
 class scalarList;
 format ascii;
 location constant;
 object deltaLTable;
 version 2.0;
}

5184
(
  0.0
  0.0
  0.0
  0.0
  0.0
  0.0
  0.0
  0.0
  0.0
  0.0
  0.0
  0.0
  0.0
  0.0
  0.0
  0.0
  0.0
  0.0
  0.0
  0.0
  0.0
  0.0
  0.0
  0.0
  0.0
  0.0
  0.0
  0.0
  0.0
  0.0
  0.0
  0.0
  0.0
  0.0
  0.0
  0.0
  0.0
  0.0
  0.0
  0.0
  0.0
  0.0
  0.0
  0.0
  0.0
  0.0
  0.0
  0.0
  0.0
  0.0
  0.0
  0.0
  0.0
  0.0
  0.0
  0.0
  0.0
  0.0
  0.0
  0.0
  0.0
  0.0
  0.0
  0.0
  0.0
  0.0
  0.0
  0.0
  0.0
  0.0
  0.0
  0.0
  0.0
  0.0
  0.0
  0.0
  0.0
  0.0
  0.0
  0.0
  0.0
  0.0
  0.0
  0.0
  0.0
  0.0
  0.0
  0.0
  0.0
  0.0
  0.0
  0.0
  0.0
  0.0
  0.0
  0.0
  0.0
  0.0
  0.0
  0.0
  0.0
  0.0
  0.0
  0.0
  0.0
  0.0
  0.0
  0.0
  0.0
  0.0
  0.0
  0.0
  0.0
  0.0
  0.0
  0.0
  0.0
  0.0
  0.0
  0.0
  0.0
  0.0
  0.0
  0.0
  0.0
  0.0
  0.0
  0.0
  0.0
  0.0
  0.0
  0.0
  0.0
  0.0
  0.0
  0.0
  0.0
  0.0
  0.0
  0.0
  0.0
  0.0
  0.0
  0.0
  0.0
  0.0
  0.0
  0.0
  0.0
  0.0
  0.0
  0.0
  0.0
  0.0
  0.0
  0.0
  0.0
  0.0
  0.0
  0.0
  0.0
  0.0
  0.0
  0.0
  0.0
  0.0
  0.0
  0.0
  0.0
  0.0
  0.0
  0.0
  0.0
  0.0
  0.0
  0.0
  0.0
  0.0
  0.0
  0.0
  0.0
  0.0
  0.0
  0.0
  0.0
  0.0
  0.0
  0.0
  0.0
  0.0
  0.0
  0.0
  0.0
  0.0
  0.0
  0.0
  0.0
  0.0
  0.0
  0.0
  0.0
  0.0
  0.0
  0.0
  0.0
  0.0
  0.0
  0.0
  0.0
  0.0
  0.0
  0.0
  0.0
  0.0
  0.0
  0.0
  3.29937e-07
  3.25334e-07
  3.1890800000000004e-07
  3.1309700000000004e-07
  3.10841e-07
  3.18504e-07
  3.31468e-07
  3.3570800000000003e-07
  3.4041500000000005e-07
  3.4438199999999997e-07
  3.50768e-07
  3.57683e-07
  3.74788e-07
  3.96613e-07
  4.10858e-07
  4.57117e-07
  5.30253e-07
  6.162699999999999e-07
  3.34846e-07
  3.30247e-07
  3.23564e-07
  3.1741e-07
  3.14291e-07
  3.1921e-07
  3.28689e-07
  3.3197000000000003e-07
  3.35862e-07
  3.39877e-07
  3.4381e-07
  3.48848e-07
  3.6299900000000003e-07
  3.8105600000000005e-07
  3.9221899999999997e-07
  4.32505e-07
  4.862830000000001e-07
  5.38746e-07
  3.33699e-07
  3.30801e-07
  3.25319e-07
  3.19816e-07
  3.1624200000000003e-07
  3.1925799999999996e-07
  3.26912e-07
  3.29552e-07
  3.32126e-07
  3.35251e-07
  3.39286e-07
  3.4334100000000003e-07
  3.5333100000000003e-07
  3.68492e-07
  3.77483e-07
  4.0710600000000005e-07
  4.53481e-07
  5.00217e-07
  3.37774e-07
  3.3506600000000004e-07
  3.29743e-07
  3.23932e-07
  3.19905e-07
  3.2154199999999996e-07
  3.26996e-07
  3.28791e-07
  3.31194e-07
  3.3360199999999997e-07
  3.3627200000000003e-07
  3.40054e-07
  3.48276e-07
  3.58917e-07
  3.6685e-07
  3.9184199999999994e-07
  4.24991e-07
  4.71256e-07
  3.4220800000000004e-07
  3.3979300000000003e-07
  3.3456700000000003e-07
  3.28843e-07
  3.24162e-07
  3.24315e-07
  3.28296e-07
  3.29816e-07
  3.31355e-07
  3.33446e-07
  3.3574700000000005e-07
  3.38299e-07
  3.45191e-07
  3.5284100000000006e-07
  3.5889100000000003e-07
  3.77047e-07
  4.05143e-07
  4.3789399999999996e-07
  3.4687200000000004e-07
  3.44661e-07
  3.39476e-07
  3.3397199999999997e-07
  3.29032e-07
  3.28136e-07
  3.3109499999999996e-07
  3.32209e-07
  3.33245e-07
  3.3464699999999997e-07
  3.36542e-07
  3.38714e-07
  3.43524e-07
  3.5045800000000003e-07
  3.54348e-07
  3.69255e-07
  3.91091e-07
  4.1490099999999996e-07
  3.52261e-07
  3.50256e-07
  3.45235e-07
  3.39719e-07
  3.35038e-07
  3.32895e-07
  3.3499e-07
  3.3590200000000004e-07
  3.3661e-07
  3.37905e-07
  3.39159e-07
  3.40796e-07
  3.44594e-07
  3.5011500000000004e-07
  3.5353399999999997e-07
  3.64e-07
  3.80269e-07
  3.9921e-07
  3.5878699999999997e-07
  3.56934e-07
  3.522e-07
  3.4699700000000005e-07
  3.42129e-07
  3.3959499999999996e-07
  3.4029400000000004e-07
  3.4086099999999997e-07
  3.4153799999999997e-07
  3.4230699999999997e-07
  3.43415e-07
  3.44334e-07
  3.47634e-07
  3.51642e-07
  3.54469e-07
  3.62587e-07
  3.75201e-07
  3.8986100000000005e-07
  3.65502e-07
  3.6385199999999997e-07
  3.59503e-07
  3.53724e-07
  3.4894799999999996e-07
  3.46242e-07
  3.46706e-07
  3.47092e-07
  3.47568e-07
  3.48316e-07
  3.48949e-07
  3.49979e-07
  3.5237e-07
  3.55564e-07
  3.57725e-07
  3.64762e-07
  3.74487e-07
  3.8532599999999997e-07
  3.73275e-07
  3.7167499999999997e-07
  3.67674e-07
  3.61774e-07
  3.5632500000000004e-07
  3.53635e-07
  3.5430299999999997e-07
  3.5458099999999996e-07
  3.54786e-07
  3.55445e-07
  3.56214e-07
  3.56747e-07
  3.58911e-07
  3.61628e-07
  3.63433e-07
  3.69226e-07
  3.77074e-07
  3.86053e-07
  3.76375e-07
  3.75753e-07
  3.72242e-07
  3.67513e-07
  3.63289e-07
  3.60915e-07
  3.61057e-07
  3.6153499999999996e-07
  3.6146300000000004e-07
  3.61878e-07
  3.62385e-07
  3.6331899999999997e-07
  3.65313e-07
  3.6834e-07
  3.69727e-07
  3.752e-07
  3.8247500000000004e-07
  3.9093600000000003e-07
  3.8349700000000004e-07
  3.83262e-07
  3.8013199999999995e-07
  3.75835e-07
  3.72304e-07
  3.70545e-07
  3.7059e-07
  3.7108599999999997e-07
  3.71527e-07
  3.72121e-07
  3.7258900000000005e-07
  3.73125e-07
  3.7555799999999995e-07
  3.78379e-07
  3.80354e-07
  3.86067e-07
  3.93424e-07
  4.0104500000000003e-07
  0.0
  0.0
  0.0
  0.0
  0.0
  0.0
  0.0
  0.0
  0.0
  0.0
  0.0
  0.0
  0.0
  0.0
  0.0
  0.0
  0.0
  0.0
  0.0
  0.0
  0.0
  0.0
  0.0
  0.0
  0.0
  0.0
  0.0
  0.0
  0.0
  0.0
  0.0
  0.0
  0.0
  0.0
  0.0
  0.0
  0.0
  0.0
  0.0
  0.0
  0.0
  0.0
  0.0
  0.0
  0.0
  0.0
  0.0
  0.0
  0.0
  0.0
  0.0
  0.0
  0.0
  0.0
  0.0
  0.0
  0.0
  0.0
  0.0
  0.0
  0.0
  0.0
  0.0
  0.0
  0.0
  0.0
  0.0
  0.0
  0.0
  0.0
  0.0
  0.0
  0.0
  0.0
  0.0
  0.0
  0.0
  0.0
  0.0
  0.0
  0.0
  0.0
  0.0
  0.0
  0.0
  0.0
  0.0
  0.0
  0.0
  0.0
  0.0
  0.0
  0.0
  0.0
  0.0
  0.0
  0.0
  0.0
  0.0
  0.0
  0.0
  0.0
  0.0
  0.0
  0.0
  0.0
  0.0
  0.0
  0.0
  0.0
  0.0
  0.0
  0.0
  0.0
  0.0
  0.0
  0.0
  0.0
  0.0
  0.0
  0.0
  0.0
  0.0
  0.0
  0.0
  0.0
  0.0
  0.0
  0.0
  0.0
  0.0
  0.0
  0.0
  0.0
  0.0
  0.0
  0.0
  0.0
  0.0
  0.0
  0.0
  0.0
  0.0
  0.0
  0.0
  0.0
  0.0
  0.0
  0.0
  0.0
  0.0
  0.0
  0.0
  0.0
  0.0
  0.0
  0.0
  0.0
  0.0
  0.0
  0.0
  0.0
  0.0
  0.0
  0.0
  0.0
  0.0
  0.0
  0.0
  0.0
  0.0
  0.0
  0.0
  0.0
  0.0
  0.0
  0.0
  0.0
  0.0
  0.0
  0.0
  0.0
  0.0
  0.0
  0.0
  0.0
  0.0
  0.0
  0.0
  0.0
  0.0
  0.0
  0.0
  0.0
  0.0
  0.0
  0.0
  0.0
  0.0
  0.0
  0.0
  0.0
  0.0
  0.0
  0.0
  0.0
  0.0
  0.0
  0.0
  0.0
  0.0
  0.0
  0.0
  0.0
  0.0
  0.0
  0.0
  0.0
  0.0
  0.0
  0.0
  0.0
  0.0
  0.0
  0.0
  0.0
  0.0
  0.0
  0.0
  0.0
  0.0
  0.0
  0.0
  0.0
  1.43752e-07
  1.42164e-07
  1.40365e-07
  1.40347e-07
  1.44647e-07
  1.59952e-07
  1.7690299999999998e-07
  1.82129e-07
  1.87381e-07
  1.94351e-07
  2.0071599999999998e-07
  2.09162e-07
  2.2758699999999999e-07
  2.53318e-07
  2.7078e-07
  3.32622e-07
  4.18913e-07
  5.70213e-07
  1.44728e-07
  1.43144e-07
  1.41376e-07
  1.4091400000000001e-07
  1.44028e-07
  1.56558e-07
  1.7128800000000002e-07
  1.74943e-07
  1.79932e-07
  1.84757e-07
  1.90104e-07
  1.97597e-07
  2.1446899999999999e-07
  2.32959e-07
  2.4881799999999997e-07
  2.94701e-07
  3.7017800000000005e-07
  4.6110599999999997e-07
  1.46219e-07
  1.44618e-07
  1.42612e-07
  1.41736e-07
  1.43829e-07
  1.53994e-07
  1.65499e-07
  1.69307e-07
  1.72906e-07
  1.7662899999999999e-07
  1.82041e-07
  1.8682199999999998e-07
  2.02221e-07
  2.2084300000000001e-07
  2.27103e-07
  2.68593e-07
  3.19446e-07
  3.9824199999999995e-07
  1.47917e-07
  1.4633100000000002e-07
  1.4413099999999998e-07
  1.4280900000000002e-07
  1.44058e-07
  1.51716e-07
  1.6122199999999999e-07
  1.6419800000000003e-07
  1.6746e-07
  1.70831e-07
  1.7524999999999998e-07
  1.7907999999999999e-07
  1.902e-07
  2.0506700000000002e-07
  2.1382999999999998e-07
  2.42917e-07
  2.89474e-07
  3.4468499999999997e-07
  1.49659e-07
  1.4806e-07
  1.45691e-07
  1.4420199999999998e-07
  1.44696e-07
  1.50629e-07
  1.5798600000000002e-07
  1.60335e-07
  1.6285499999999998e-07
  1.66003e-07
  1.69668e-07
  1.73116e-07
  1.8205e-07
  1.93306e-07
  2.01473e-07
  2.24267e-07
  2.6282e-07
  3.04468e-07
  1.51385e-07
  1.49778e-07
  1.47487e-07
  1.45675e-07
  1.45614e-07
  1.49945e-07
  1.56142e-07
  1.57854e-07
  1.59898e-07
  1.62023e-07
  1.64854e-07
  1.6803099999999998e-07
  1.75366e-07
  1.8518000000000002e-07
  1.90871e-07
  2.0973100000000001e-07
  2.3782899999999998e-07
  2.72055e-07
  1.533e-07
  1.51776e-07
  1.4943600000000002e-07
  1.47512e-07
  1.46961e-07
  1.50044e-07
  1.5496199999999998e-07
  1.56281e-07
  1.57654e-07
  1.59647e-07
  1.61917e-07
  1.6415200000000003e-07
  1.70527e-07
  1.7767299999999998e-07
  1.82981e-07
  1.97242e-07
  2.19888e-07
  2.46829e-07
  1.55498e-07
  1.54026e-07
  1.5157999999999998e-07
  1.49519e-07
  1.48704e-07
  1.50759e-07
  1.5441600000000002e-07
  1.55568e-07
  1.56857e-07
  1.58203e-07
  1.59757e-07
  1.6181800000000003e-07
  1.66383e-07
  1.72075e-07
  1.76226e-07
  1.88763e-07
  2.05646e-07
  2.26007e-07
  1.58272e-07
  1.56695e-07
  1.5401100000000002e-07
  1.51897e-07
  1.50802e-07
  1.52097e-07
  1.5474100000000002e-07
  1.55589e-07
  1.56557e-07
  1.57733e-07
  1.59137e-07
  1.6037e-07
  1.64143e-07
  1.68792e-07
  1.71776e-07
  1.81308e-07
  1.95294e-07
  2.11355e-07
  1.60776e-07
  1.59253e-07
  1.5664699999999999e-07
  1.54252e-07
  1.52759e-07
  1.5363399999999998e-07
  1.55675e-07
  1.56351e-07
  1.57177e-07
  1.58136e-07
  1.59101e-07
  1.60162e-07
  1.63013e-07
  1.66672e-07
  1.69191e-07
  1.76077e-07
  1.8769900000000002e-07
  1.99681e-07
  1.63498e-07
  1.6204800000000002e-07
  1.59512e-07
  1.56991e-07
  1.55381e-07
  1.5576100000000001e-07
  1.57485e-07
  1.58088e-07
  1.58538e-07
  1.5917100000000002e-07
  1.5998499999999999e-07
  1.60965e-07
  1.63121e-07
  1.66142e-07
  1.67887e-07
  1.73728e-07
  1.81822e-07
  1.9159300000000001e-07
  0.0
  0.0
  0.0
  0.0
  0.0
  0.0
  0.0
  0.0
  0.0
  0.0
  0.0
  0.0
  0.0
  0.0
  0.0
  0.0
  0.0
  0.0
  0.0
  0.0
  0.0
  0.0
  0.0
  0.0
  0.0
  0.0
  0.0
  0.0
  0.0
  0.0
  0.0
  0.0
  0.0
  0.0
  0.0
  0.0
  0.0
  0.0
  0.0
  0.0
  0.0
  0.0
  0.0
  0.0
  0.0
  0.0
  0.0
  0.0
  0.0
  0.0
  0.0
  0.0
  0.0
  0.0
  0.0
  0.0
  0.0
  0.0
  0.0
  0.0
  0.0
  0.0
  0.0
  0.0
  0.0
  0.0
  0.0
  0.0
  0.0
  0.0
  0.0
  0.0
  0.0
  0.0
  0.0
  0.0
  0.0
  0.0
  0.0
  0.0
  0.0
  0.0
  0.0
  0.0
  0.0
  0.0
  0.0
  0.0
  0.0
  0.0
  0.0
  0.0
  0.0
  0.0
  0.0
  0.0
  0.0
  0.0
  0.0
  0.0
  0.0
  0.0
  0.0
  0.0
  0.0
  0.0
  0.0
  0.0
  0.0
  0.0
  0.0
  0.0
  0.0
  0.0
  0.0
  0.0
  0.0
  0.0
  0.0
  0.0
  0.0
  0.0
  0.0
  0.0
  0.0
  0.0
  0.0
  0.0
  0.0
  0.0
  0.0
  0.0
  0.0
  0.0
  0.0
  0.0
  0.0
  0.0
  0.0
  0.0
  0.0
  0.0
  0.0
  0.0
  0.0
  0.0
  0.0
  0.0
  0.0
  0.0
  0.0
  0.0
  0.0
  0.0
  0.0
  0.0
  0.0
  0.0
  0.0
  0.0
  0.0
  0.0
  0.0
  0.0
  0.0
  0.0
  0.0
  0.0
  0.0
  0.0
  0.0
  0.0
  0.0
  0.0
  0.0
  0.0
  0.0
  0.0
  0.0
  0.0
  0.0
  0.0
  0.0
  0.0
  0.0
  0.0
  0.0
  0.0
  0.0
  0.0
  0.0
  0.0
  0.0
  0.0
  0.0
  0.0
  0.0
  0.0
  0.0
  0.0
  0.0
  0.0
  0.0
  0.0
  0.0
  0.0
  0.0
  0.0
  0.0
  0.0
  0.0
  0.0
  0.0
  0.0
  0.0
  0.0
  0.0
  0.0
  0.0
  0.0
  0.0
  0.0
  0.0
  0.0
  0.0
  0.0
  0.0
  0.0
  0.0
  0.0
  0.0
  0.0
  0.0
  0.0
  8.955180000000001e-08
  8.92236e-08
  8.952569999999999e-08
  9.190080000000001e-08
  9.914109999999999e-08
  1.19176e-07
  1.39314e-07
  1.44344e-07
  1.5156200000000002e-07
  1.5991e-07
  1.67172e-07
  1.7850600000000002e-07
  2.01661e-07
  2.39086e-07
  2.60683e-07
  3.33486e-07
  4.71833e-07
  6.53838e-07
  9.01998e-08
  8.96767e-08
  8.95667e-08
  9.16671e-08
  9.7538e-08
  1.1414600000000001e-07
  1.32563e-07
  1.38429e-07
  1.42109e-07
  1.48924e-07
  1.54689e-07
  1.64237e-07
  1.8635699999999998e-07
  2.09976e-07
  2.3202299999999999e-07
  2.89577e-07
  3.83026e-07
  5.23647e-07
  9.09583e-08
  9.03518e-08
  8.98782e-08
  9.12677e-08
  9.60908e-08
  1.1046099999999999e-07
  1.24797e-07
  1.29507e-07
  1.34904e-07
  1.3978e-07
  1.4496e-07
  1.5290899999999998e-07
  1.7007000000000001e-07
  1.94348e-07
  2.02435e-07
  2.56973e-07
  3.37711e-07
  4.34092e-07
  9.17583e-08
  9.10086e-08
  9.03163e-08
  9.11188e-08
  9.51368e-08
  1.07086e-07
  1.18746e-07
  1.22517e-07
  1.2669800000000001e-07
  1.31781e-07
  1.37678e-07
  1.41253e-07
  1.54799e-07
  1.7705400000000002e-07
  1.87629e-07
  2.2548900000000001e-07
  2.85285e-07
  3.59831e-07
  9.263240000000001e-08
  9.18147e-08
  9.09221e-08
  9.126009999999999e-08
  9.435150000000001e-08
  1.03768e-07
  1.1480200000000001e-07
  1.17331e-07
  1.21065e-07
  1.24162e-07
  1.28849e-07
  1.3425e-07
  1.44621e-07
  1.5953100000000003e-07
  1.71063e-07
  2.00041e-07
  2.46169e-07
  3.09909e-07
  9.35316e-08
  9.26488e-08
  9.15738e-08
  9.153589999999999e-08
  9.378410000000001e-08
  1.01429e-07
  1.1052399999999999e-07
  1.1305699999999999e-07
  1.16141e-07
  1.1880300000000001e-07
  1.2265e-07
  1.26143e-07
  1.37143e-07
  1.48553e-07
  1.55049e-07
  1.82083e-07
  2.19896e-07
  2.64137e-07
  9.45661e-08
  9.362330000000001e-08
  9.242299999999999e-08
  9.2028e-08
  9.3772e-08
  9.98659e-08
  1.0737600000000001e-07
  1.0923e-07
  1.11547e-07
  1.1433e-07
  1.16861e-07
  1.20356e-07
  1.28233e-07
  1.37636e-07
  1.44571e-07
  1.6565199999999998e-07
  1.9477899999999997e-07
  2.35304e-07
  9.55908e-08
  9.46328e-08
  9.335260000000001e-08
  9.26474e-08
  9.37871e-08
  9.88055e-08
  1.04637e-07
  1.06394e-07
  1.08444e-07
  1.1018299999999999e-07
  1.12776e-07
  1.15743e-07
  1.21529e-07
  1.30727e-07
  1.36212e-07
  1.52022e-07
  1.76841e-07
  2.0329000000000002e-07
  9.67563e-08
  9.5763e-08
  9.44088e-08
  9.34916e-08
  9.41383e-08
  9.814280000000001e-08
  1.02651e-07
  1.04075e-07
  1.05693e-07
  1.0755e-07
  1.09122e-07
  1.1150599999999999e-07
  1.16641e-07
  1.2342699999999998e-07
  1.28062e-07
  1.41033e-07
  1.60885e-07
  1.8613900000000002e-07
  9.77444e-08
  9.683449999999999e-08
  9.53406e-08
  9.430019999999999e-08
  9.45192e-08
  9.76271e-08
  1.01488e-07
  1.024e-07
  1.03705e-07
  1.0515800000000001e-07
  1.06881e-07
  1.08397e-07
  1.12808e-07
  1.1825199999999999e-07
  1.21921e-07
  1.3247e-07
  1.47793e-07
  1.6552300000000002e-07
  9.914669999999999e-08
  9.814380000000001e-08
  9.665289999999999e-08
  9.54998e-08
  9.5428e-08
  9.76763e-08
  1.00733e-07
  1.01672e-07
  1.02737e-07
  1.03636e-07
  1.04985e-07
  1.0641800000000001e-07
  1.0984100000000001e-07
  1.14358e-07
  1.16894e-07
  1.25873e-07
  1.381e-07
  1.53032e-07
  0.0
  0.0
  0.0
  0.0
  0.0
  0.0
  0.0
  0.0
  0.0
  0.0
  0.0
  0.0
  0.0
  0.0
  0.0
  0.0
  0.0
  0.0
  0.0
  0.0
  0.0
  0.0
  0.0
  0.0
  0.0
  0.0
  0.0
  0.0
  0.0
  0.0
  0.0
  0.0
  0.0
  0.0
  0.0
  0.0
  0.0
  0.0
  0.0
  0.0
  0.0
  0.0
  0.0
  0.0
  0.0
  0.0
  0.0
  0.0
  0.0
  0.0
  0.0
  0.0
  0.0
  0.0
  0.0
  0.0
  0.0
  0.0
  0.0
  0.0
  0.0
  0.0
  0.0
  0.0
  0.0
  0.0
  0.0
  0.0
  0.0
  0.0
  0.0
  0.0
  0.0
  0.0
  0.0
  0.0
  0.0
  0.0
  0.0
  0.0
  0.0
  0.0
  0.0
  0.0
  0.0
  0.0
  0.0
  0.0
  0.0
  0.0
  0.0
  0.0
  0.0
  0.0
  0.0
  0.0
  0.0
  0.0
  0.0
  0.0
  0.0
  0.0
  0.0
  0.0
  0.0
  0.0
  0.0
  0.0
  0.0
  0.0
  0.0
  0.0
  0.0
  0.0
  0.0
  0.0
  0.0
  0.0
  0.0
  0.0
  0.0
  0.0
  0.0
  0.0
  0.0
  0.0
  0.0
  0.0
  0.0
  0.0
  0.0
  0.0
  0.0
  0.0
  0.0
  0.0
  0.0
  0.0
  0.0
  0.0
  0.0
  0.0
  0.0
  0.0
  0.0
  0.0
  0.0
  0.0
  0.0
  0.0
  0.0
  0.0
  0.0
  0.0
  0.0
  0.0
  0.0
  0.0
  0.0
  0.0
  0.0
  0.0
  0.0
  0.0
  0.0
  0.0
  0.0
  0.0
  0.0
  0.0
  0.0
  0.0
  0.0
  0.0
  0.0
  0.0
  0.0
  0.0
  0.0
  0.0
  0.0
  0.0
  0.0
  0.0
  0.0
  0.0
  0.0
  0.0
  0.0
  0.0
  0.0
  0.0
  0.0
  0.0
  0.0
  0.0
  0.0
  0.0
  0.0
  0.0
  0.0
  0.0
  0.0
  0.0
  0.0
  0.0
  0.0
  0.0
  0.0
  0.0
  0.0
  0.0
  0.0
  0.0
  0.0
  0.0
  6.49122e-08
  6.556159999999999e-08
  6.73042e-08
  7.19013e-08
  8.226460000000001e-08
  1.08247e-07
  1.3542499999999998e-07
  1.44622e-07
  1.53329e-07
  1.62402e-07
  1.7708400000000003e-07
  1.8678600000000002e-07
  2.27038e-07
  2.79338e-07
  3.1973800000000003e-07
  4.20094e-07
  6.195350000000001e-07
  7.81755e-07
  6.513e-08
  6.554570000000001e-08
  6.683329999999999e-08
  7.074460000000001e-08
  7.98213e-08
  1.0141300000000001e-07
  1.24101e-07
  1.31451e-07
  1.39949e-07
  1.48098e-07
  1.56763e-07
  1.70487e-07
  1.9619200000000001e-07
  2.40806e-07
  2.67079e-07
  3.59986e-07
  5.048269999999999e-07
  6.65995e-07
  6.53968e-08
  6.55844e-08
  6.65649e-08
  6.976360000000001e-08
  7.738819999999999e-08
  9.664969999999999e-08
  1.1669699999999999e-07
  1.23592e-07
  1.29216e-07
  1.3755500000000002e-07
  1.44482e-07
  1.5384599999999999e-07
  1.79984e-07
  2.0944199999999998e-07
  2.39031e-07
  2.9900399999999997e-07
  4.19425e-07
  5.65086e-07
  6.57213e-08
  6.57082e-08
  6.63705e-08
  6.88825e-08
  7.55573e-08
  9.20471e-08
  1.0901699999999999e-07
  1.14404e-07
  1.19743e-07
  1.2526e-07
  1.33447e-07
  1.40704e-07
  1.62054e-07
  1.84319e-07
  2.01919e-07
  2.6302e-07
  3.56676e-07
  4.6538900000000004e-07
  6.607070000000001e-08
  6.59431e-08
  6.62925e-08
  6.8285e-08
  7.38456e-08
  8.78304e-08
  1.02431e-07
  1.06175e-07
  1.11295e-07
  1.16155e-07
  1.23155e-07
  1.29107e-07
  1.45486e-07
  1.6744000000000002e-07
  1.8422300000000002e-07
  2.25146e-07
  2.9948e-07
  3.86568e-07
  6.6451e-08
  6.62095e-08
  6.62953e-08
  6.77891e-08
  7.28034e-08
  8.41006e-08
  9.778e-08
  1.0076699999999999e-07
  1.05235e-07
  1.08282e-07
  1.13782e-07
  1.1932200000000001e-07
  1.3171e-07
  1.49843e-07
  1.6115300000000001e-07
  1.96664e-07
  2.57479e-07
  3.3782499999999997e-07
  6.6931e-08
  6.65949e-08
  6.64019e-08
  6.74644e-08
  7.15098e-08
  8.132140000000001e-08
  9.24199e-08
  9.54508e-08
  9.92951e-08
  1.02494e-07
  1.0548e-07
  1.10673e-07
  1.2289e-07
  1.35741e-07
  1.4469499999999999e-07
  1.78477e-07
  2.2019000000000001e-07
  2.75645e-07
  6.74836e-08
  6.7006e-08
  6.66686e-08
  6.73842e-08
  7.05158e-08
  7.87367e-08
  8.78251e-08
  9.05143e-08
  9.356499999999999e-08
  9.683830000000001e-08
  9.992e-08
  1.04252e-07
  1.1226399999999999e-07
  1.25018e-07
  1.32077e-07
  1.56324e-07
  1.91726e-07
  2.41223e-07
  6.81104e-08
  6.75243e-08
  6.705779999999999e-08
  6.7424e-08
  6.97781e-08
  7.697919999999999e-08
  8.409150000000001e-08
  8.628820000000001e-08
  8.877980000000001e-08
  9.160680000000001e-08
  9.46013e-08
  9.8395e-08
  1.04851e-07
  1.15293e-07
  1.22678e-07
  1.39843e-07
  1.7272999999999999e-07
  2.0443400000000002e-07
  6.87396e-08
  6.81632e-08
  6.75006e-08
  6.75706e-08
  6.94204e-08
  7.52884e-08
  8.145729999999999e-08
  8.298799999999999e-08
  8.49947e-08
  8.720380000000001e-08
  8.98198e-08
  9.254930000000001e-08
  9.92181e-08
  1.06978e-07
  1.1278899999999999e-07
  1.2769e-07
  1.5254200000000002e-07
  1.7773200000000002e-07
  6.96681e-08
  6.90295e-08
  6.822e-08
  6.80126e-08
  6.9429e-08
  7.4091e-08
  7.90204e-08
  8.04949e-08
  8.20641e-08
  8.398959999999999e-08
  8.586999999999999e-08
  8.81877e-08
  9.28942e-08
  1.00345e-07
  1.05173e-07
  1.17582e-07
  1.37088e-07
  1.5662500000000001e-07
  7.04312e-08
  6.97711e-08
  6.8917e-08
  6.85078e-08
  6.94483e-08
  7.32068e-08
  7.73966e-08
  7.84545e-08
  7.97352e-08
  8.116570000000001e-08
  8.29142e-08
  8.465910000000001e-08
  8.93497e-08
  9.44645e-08
  9.821670000000001e-08
  1.0836700000000001e-07
  1.23576e-07
  1.42395e-07
  0.0
  0.0
  0.0
  0.0
  0.0
  0.0
  0.0
  0.0
  0.0
  0.0
  0.0
  0.0
  0.0
  0.0
  0.0
  0.0
  0.0
  0.0
  0.0
  0.0
  0.0
  0.0
  0.0
  0.0
  0.0
  0.0
  0.0
  0.0
  0.0
  0.0
  0.0
  0.0
  0.0
  0.0
  0.0
  0.0
  0.0
  0.0
  0.0
  0.0
  0.0
  0.0
  0.0
  0.0
  0.0
  0.0
  0.0
  0.0
  0.0
  0.0
  0.0
  0.0
  0.0
  0.0
  0.0
  0.0
  0.0
  0.0
  0.0
  0.0
  0.0
  0.0
  0.0
  0.0
  0.0
  0.0
  0.0
  0.0
  0.0
  0.0
  0.0
  0.0
  0.0
  0.0
  0.0
  0.0
  0.0
  0.0
  0.0
  0.0
  0.0
  0.0
  0.0
  0.0
  0.0
  0.0
  0.0
  0.0
  0.0
  0.0
  0.0
  0.0
  0.0
  0.0
  0.0
  0.0
  0.0
  0.0
  0.0
  0.0
  0.0
  0.0
  0.0
  0.0
  0.0
  0.0
  0.0
  0.0
  0.0
  0.0
  0.0
  0.0
  0.0
  0.0
  0.0
  0.0
  0.0
  0.0
  0.0
  0.0
  0.0
  0.0
  0.0
  0.0
  0.0
  0.0
  0.0
  0.0
  0.0
  0.0
  0.0
  0.0
  0.0
  0.0
  0.0
  0.0
  0.0
  0.0
  0.0
  0.0
  0.0
  0.0
  0.0
  0.0
  0.0
  0.0
  0.0
  0.0
  0.0
  0.0
  0.0
  0.0
  0.0
  0.0
  0.0
  0.0
  0.0
  0.0
  0.0
  0.0
  0.0
  0.0
  0.0
  0.0
  0.0
  0.0
  0.0
  0.0
  0.0
  0.0
  0.0
  0.0
  0.0
  0.0
  0.0
  0.0
  0.0
  0.0
  0.0
  0.0
  0.0
  0.0
  0.0
  0.0
  0.0
  0.0
  0.0
  0.0
  0.0
  0.0
  0.0
  0.0
  0.0
  0.0
  0.0
  0.0
  0.0
  0.0
  0.0
  0.0
  0.0
  0.0
  0.0
  0.0
  0.0
  0.0
  0.0
  0.0
  0.0
  0.0
  0.0
  0.0
  0.0
  0.0
  0.0
  0.0
  5.1571899999999995e-08
  5.27932e-08
  5.52376e-08
  6.058350000000001e-08
  7.189570000000001e-08
  9.94998e-08
  1.29573e-07
  1.37761e-07
  1.49765e-07
  1.6007799999999999e-07
  1.76435e-07
  1.87994e-07
  2.2791800000000002e-07
  2.8881500000000004e-07
  3.18616e-07
  4.33912e-07
  6.027639999999999e-07
  7.62669e-07
  5.14852e-08
  5.24712e-08
  5.45486e-08
  5.90504e-08
  6.93796e-08
  9.218290000000001e-08
  1.17151e-07
  1.2534700000000002e-07
  1.34917e-07
  1.4424e-07
  1.54119e-07
  1.69891e-07
  1.9816100000000002e-07
  2.46957e-07
  2.77199e-07
  3.7157099999999996e-07
  5.13639e-07
  6.52603e-07
  5.1478799999999996e-08
  5.21391e-08
  5.39219e-08
  5.78869e-08
  6.65807e-08
  8.70098e-08
  1.09122e-07
  1.16876e-07
  1.23077e-07
  1.32684e-07
  1.3824e-07
  1.5151099999999999e-07
  1.78765e-07
  2.15402e-07
  2.4086e-07
  3.16388e-07
  4.3007099999999996e-07
  5.633909999999999e-07
  5.15539e-08
  5.201989999999999e-08
  5.33805e-08
  5.67355e-08
  6.44165e-08
  8.20047e-08
  1.00728e-07
  1.05716e-07
  1.1278899999999999e-07
  1.1887e-07
  1.27764e-07
  1.35296e-07
  1.57223e-07
  1.86549e-07
  2.0666099999999997e-07
  2.68646e-07
  3.70249e-07
  4.72701e-07
  5.1654200000000005e-08
  5.19489e-08
  5.29738e-08
  5.58602e-08
  6.27118e-08
  7.746080000000001e-08
  9.45795e-08
  9.77228e-08
  1.03459e-07
  1.08956e-07
  1.14874e-07
  1.23596e-07
  1.40066e-07
  1.67472e-07
  1.7960300000000002e-07
  2.33373e-07
  3.12971e-07
  3.98935e-07
  5.18026e-08
  5.19786e-08
  5.27102e-08
  5.50344e-08
  6.08803e-08
  7.38939e-08
  8.869799999999999e-08
  9.1749e-08
  9.677530000000001e-08
  1.00181e-07
  1.05277e-07
  1.1281199999999999e-07
  1.28566e-07
  1.4552e-07
  1.6073500000000002e-07
  2.01093e-07
  2.64832e-07
  3.5189199999999996e-07
  5.2048599999999997e-08
  5.21116e-08
  5.2551699999999997e-08
  5.44583e-08
  5.9228799999999996e-08
  7.03333e-08
  8.25057e-08
  8.61783e-08
  9.02195e-08
  9.28229e-08
  9.713399999999999e-08
  1.0301200000000001e-07
  1.1507900000000001e-07
  1.31624e-07
  1.41933e-07
  1.74077e-07
  2.28499e-07
  2.85533e-07
  5.2361200000000006e-08
  5.2272700000000005e-08
  5.2535e-08
  5.3972800000000005e-08
  5.7948e-08
  6.76931e-08
  7.752409999999999e-08
  8.049249999999999e-08
  8.38252e-08
  8.779150000000001e-08
  9.09892e-08
  9.60662e-08
  1.0506600000000001e-07
  1.19633e-07
  1.29616e-07
  1.55752e-07
  1.9383400000000001e-07
  2.50472e-07
  5.2692899999999995e-08
  5.2528199999999997e-08
  5.2586799999999995e-08
  5.36863e-08
  5.69415e-08
  6.54184e-08
  7.33156e-08
  7.57649e-08
  7.85534e-08
  8.17253e-08
  8.532170000000001e-08
  8.936560000000001e-08
  9.66678e-08
  1.0870600000000001e-07
  1.1534499999999999e-07
  1.3670699999999998e-07
  1.74189e-07
  2.0857699999999998e-07
  5.3113999999999995e-08
  5.28645e-08
  5.2696000000000004e-08
  5.3481300000000004e-08
  5.6121099999999996e-08
  6.33723e-08
  7.02558e-08
  7.23648e-08
  7.414569999999999e-08
  7.67411e-08
  7.96858e-08
  8.30073e-08
  9.13866e-08
  9.919430000000001e-08
  1.04856e-07
  1.22532e-07
  1.48882e-07
  1.79989e-07
  5.3632e-08
  5.32744e-08
  5.2996299999999997e-08
  5.3492499999999994e-08
  5.5616299999999996e-08
  6.1553e-08
  6.752939999999999e-08
  6.92919e-08
  7.118659999999999e-08
  7.34563e-08
  7.58096e-08
  7.879e-08
  8.42812e-08
  9.256679999999999e-08
  9.72942e-08
  1.1104899999999999e-07
  1.32436e-07
  1.55024e-07
  5.4155400000000006e-08
  5.3755100000000006e-08
  5.33387e-08
  5.3575400000000003e-08
  5.5254200000000004e-08
  6.02022e-08
  6.52971e-08
  6.6524e-08
  6.815780000000001e-08
  7.0016e-08
  7.19553e-08
  7.432609999999999e-08
  8.00137e-08
  8.55103e-08
  8.966109999999999e-08
  1.01906e-07
  1.17946e-07
  1.38636e-07
  0.0
  0.0
  0.0
  0.0
  0.0
  0.0
  0.0
  0.0
  0.0
  0.0
  0.0
  0.0
  0.0
  0.0
  0.0
  0.0
  0.0
  0.0
  0.0
  0.0
  0.0
  0.0
  0.0
  0.0
  0.0
  0.0
  0.0
  0.0
  0.0
  0.0
  0.0
  0.0
  0.0
  0.0
  0.0
  0.0
  0.0
  0.0
  0.0
  0.0
  0.0
  0.0
  0.0
  0.0
  0.0
  0.0
  0.0
  0.0
  0.0
  0.0
  0.0
  0.0
  0.0
  0.0
  0.0
  0.0
  0.0
  0.0
  0.0
  0.0
  0.0
  0.0
  0.0
  0.0
  0.0
  0.0
  0.0
  0.0
  0.0
  0.0
  0.0
  0.0
  0.0
  0.0
  0.0
  0.0
  0.0
  0.0
  0.0
  0.0
  0.0
  0.0
  0.0
  0.0
  0.0
  0.0
  0.0
  0.0
  0.0
  0.0
  0.0
  0.0
  0.0
  0.0
  0.0
  0.0
  0.0
  0.0
  0.0
  0.0
  0.0
  0.0
  0.0
  0.0
  0.0
  0.0
  0.0
  0.0
  0.0
  0.0
  0.0
  0.0
  0.0
  0.0
  0.0
  0.0
  0.0
  0.0
  0.0
  0.0
  0.0
  0.0
  0.0
  0.0
  0.0
  0.0
  0.0
  0.0
  0.0
  0.0
  0.0
  0.0
  0.0
  0.0
  0.0
  0.0
  0.0
  0.0
  0.0
  0.0
  0.0
  0.0
  0.0
  0.0
  0.0
  0.0
  0.0
  0.0
  0.0
  0.0
  0.0
  0.0
  0.0
  0.0
  0.0
  0.0
  0.0
  0.0
  0.0
  0.0
  0.0
  0.0
  0.0
  0.0
  0.0
  0.0
  0.0
  0.0
  0.0
  0.0
  0.0
  0.0
  0.0
  0.0
  0.0
  0.0
  0.0
  0.0
  0.0
  0.0
  0.0
  0.0
  0.0
  0.0
  0.0
  0.0
  0.0
  0.0
  0.0
  0.0
  0.0
  0.0
  0.0
  0.0
  0.0
  0.0
  0.0
  0.0
  0.0
  0.0
  0.0
  0.0
  0.0
  0.0
  0.0
  0.0
  0.0
  0.0
  0.0
  0.0
  0.0
  0.0
  0.0
  0.0
  0.0
  0.0
  4.33852e-08
  4.4876799999999995e-08
  4.77793e-08
  5.3322600000000005e-08
  6.58108e-08
  9.290870000000001e-08
  1.26744e-07
  1.35596e-07
  1.4840900000000002e-07
  1.5955e-07
  1.7703e-07
  1.89085e-07
  2.29983e-07
  2.8975999999999997e-07
  3.19196e-07
  4.2323300000000004e-07
  5.71738e-07
  7.20143e-07
  4.31087e-08
  4.43794e-08
  4.6838199999999997e-08
  5.1710400000000006e-08
  6.25335e-08
  8.76916e-08
  1.1342799999999999e-07
  1.22295e-07
  1.32617e-07
  1.42702e-07
  1.53315e-07
  1.69584e-07
  1.9964599999999999e-07
  2.48903e-07
  2.78576e-07
  3.6767999999999997e-07
  4.94144e-07
  6.34452e-07
  4.29642e-08
  4.4056200000000005e-08
  4.60758e-08
  5.0622e-08
  5.98376e-08
  8.0994e-08
  1.03604e-07
  1.1126e-07
  1.20254e-07
  1.30729e-07
  1.36674e-07
  1.51197e-07
  1.75311e-07
  2.18215e-07
  2.41027e-07
  3.16399e-07
  4.20592e-07
  5.47803e-07
  4.2845500000000005e-08
  4.368800000000001e-08
  4.53764e-08
  4.92749e-08
  5.78184e-08
  7.595210000000001e-08
  9.60984e-08
  1.0152399999999999e-07
  1.0929400000000001e-07
  1.15819e-07
  1.2552999999999999e-07
  1.33659e-07
  1.57229e-07
  1.84662e-07
  2.09319e-07
  2.71135e-07
  3.7416500000000004e-07
  4.6654e-07
  4.27675e-08
  4.34131e-08
  4.4867e-08
  4.81073e-08
  5.59224e-08
  7.12969e-08
  8.84375e-08
  9.313659999999999e-08
  9.92507e-08
  1.05309e-07
  1.1167200000000001e-07
  1.21154e-07
  1.3891e-07
  1.67544e-07
  1.8136e-07
  2.36793e-07
  3.13693e-07
  4.01664e-07
  4.2799000000000005e-08
  4.326699999999999e-08
  4.4454499999999996e-08
  4.72464e-08
  5.35343e-08
  6.74406e-08
  8.341030000000001e-08
  8.67305e-08
  9.219820000000001e-08
  9.589339999999999e-08
  1.01514e-07
  1.09828e-07
  1.27111e-07
  1.45173e-07
  1.61746e-07
  2.0435799999999998e-07
  2.7135799999999996e-07
  3.4542200000000003e-07
  4.286e-08
  4.31896e-08
  4.41214e-08
  4.6409300000000005e-08
  5.17136e-08
  6.41663e-08
  7.67564e-08
  8.07541e-08
  8.51753e-08
  8.792309999999999e-08
  9.26866e-08
  9.91604e-08
  1.12346e-07
  1.30499e-07
  1.41865e-07
  1.75965e-07
  2.31922e-07
  2.86696e-07
  4.30092e-08
  4.31787e-08
  4.38353e-08
  4.58675e-08
  5.0361400000000005e-08
  6.12515e-08
  7.18997e-08
  7.45883e-08
  7.82226e-08
  8.25357e-08
  8.6028e-08
  9.16412e-08
  1.0037999999999999e-07
  1.1753799999999999e-07
  1.2853e-07
  1.5529800000000002e-07
  1.95959e-07
  2.49352e-07
  4.3174499999999994e-08
  4.32513e-08
  4.3664e-08
  4.52666e-08
  4.9192399999999997e-08
  5.87429e-08
  6.74025e-08
  7.00996e-08
  7.30667e-08
  7.59752e-08
  7.99105e-08
  8.43728e-08
  9.23527e-08
  1.05758e-07
  1.12822e-07
  1.34909e-07
  1.7158499999999998e-07
  2.09679e-07
  4.3426300000000004e-08
  4.33945e-08
  4.36045e-08
  4.49021e-08
  4.8102500000000003e-08
  5.6764100000000003e-08
  6.35414e-08
  6.582589999999999e-08
  6.78857e-08
  7.06961e-08
  7.38237e-08
  7.74719e-08
  8.67315e-08
  9.505e-08
  1.0118100000000001e-07
  1.21923e-07
  1.4921e-07
  1.81376e-07
  4.35536e-08
  4.34636e-08
  4.35355e-08
  4.4512099999999994e-08
  4.7322899999999994e-08
  5.40994e-08
  6.04786e-08
  6.23921e-08
  6.45247e-08
  6.69736e-08
  6.9725e-08
  7.29155e-08
  7.87701e-08
  8.687529999999999e-08
  9.27417e-08
  1.08364e-07
  1.31916e-07
  1.55613e-07
  4.38957e-08
  4.37264e-08
  4.36477e-08
  4.4351500000000005e-08
  4.66088e-08
  5.2522600000000005e-08
  5.80019e-08
  5.96658e-08
  6.11667e-08
  6.309709999999999e-08
  6.539e-08
  6.790729999999999e-08
  7.41657e-08
  8.03536e-08
  8.46073e-08
  9.74467e-08
  1.1617000000000001e-07
  1.40396e-07
  0.0
  0.0
  0.0
  0.0
  0.0
  0.0
  0.0
  0.0
  0.0
  0.0
  0.0
  0.0
  0.0
  0.0
  0.0
  0.0
  0.0
  0.0
  0.0
  0.0
  0.0
  0.0
  0.0
  0.0
  0.0
  0.0
  0.0
  0.0
  0.0
  0.0
  0.0
  0.0
  0.0
  0.0
  0.0
  0.0
  0.0
  0.0
  0.0
  0.0
  0.0
  0.0
  0.0
  0.0
  0.0
  0.0
  0.0
  0.0
  0.0
  0.0
  0.0
  0.0
  0.0
  0.0
  0.0
  0.0
  0.0
  0.0
  0.0
  0.0
  0.0
  0.0
  0.0
  0.0
  0.0
  0.0
  0.0
  0.0
  0.0
  0.0
  0.0
  0.0
  0.0
  0.0
  0.0
  0.0
  0.0
  0.0
  0.0
  0.0
  0.0
  0.0
  0.0
  0.0
  0.0
  0.0
  0.0
  0.0
  0.0
  0.0
  0.0
  0.0
  0.0
  0.0
  0.0
  0.0
  0.0
  0.0
  0.0
  0.0
  0.0
  0.0
  0.0
  0.0
  0.0
  0.0
  0.0
  0.0
  0.0
  0.0
  0.0
  0.0
  0.0