// -*- C++ -*-
// File generated by PyFoam - sorry for the ugliness

FoamFile
{
 class scalarList;
 format ascii;
 location constant;
 object laminarFlameSpeedTable;
 version 2.0;
}

5184
(
  0.00210741
  0.00212589
  0.00214548
  0.00216898
  0.00610389
  0.010517499999999999
  0.0164003
  0.0216396
  0.0311212
  0.0382721
  0.052181
  0.0664323
  0.1319
  0.330194
  0.606865
  0.904676
  1.24903
  1.58758
  0.00427757
  0.0159599
  0.018964099999999998
  0.020472
  0.0243107
  0.043415
  0.0706949
  0.0958882
  0.113642
  0.14321
  0.230408
  0.285511
  0.306787
  0.6708329999999999
  1.1212900000000001
  1.62609
  2.16343
  2.66457
  0.00538886
  0.005403440000000001
  0.0336478
  0.0362214
  0.052000000000000005
  0.0920472
  0.135069
  0.153207
  0.194374
  0.2005
  0.23953499999999997
  0.27663699999999997
  0.46334000000000003
  0.926485
  1.49698
  2.11356
  2.75476
  3.35019
  0.00553308
  0.0342597
  0.0376641
  0.0797274
  0.10594799999999999
  0.169484
  0.212642
  0.244716
  0.269474
  0.321057
  0.35600099999999996
  0.407227
  0.6459969999999999
  1.25753
  1.95323
  2.72046
  3.4633100000000003
  4.14492
  0.0753404
  0.0885995
  0.09627050000000001
  0.224008
  0.255537
  0.267591
  0.327737
  0.374405
  0.430388
  0.46600700000000006
  0.538301
  0.606393
  0.9128700000000001
  1.6581700000000001
  2.53954
  3.44401
  4.29572
  5.06564
  0.0111744
  0.011191199999999998
  0.226141
  0.242573
  0.308865
  0.39562800000000004
  0.513741
  0.564186
  0.646132
  0.71792
  0.783381
  0.8509399999999999
  1.2547
  2.20084
  3.24223
  4.28635
  5.255990000000001
  6.111000000000001
  0.0215869
  0.32684199999999997
  0.37910499999999997
  0.406782
  0.47625300000000004
  0.608669
  0.755519
  0.8463200000000001
  0.901117
  1.00639
  1.0972499999999998
  1.2034399999999998
  1.71889
  2.89091
  4.11568
  5.29211
  6.37437
  7.30914
  0.0057497699999999995
  0.41682600000000003
  0.452245
  0.6439520000000001
  0.7121590000000001
  0.925941
  1.11515
  1.23078
  1.35093
  1.46567
  1.55453
  1.6833699999999998
  2.33991
  3.72485
  5.162190000000001
  6.4836599999999995
  7.66334
  8.669500000000001
  0.386308
  0.416377
  0.594873
  0.7865040000000001
  0.907507
  1.1218000000000001
  1.35102
  1.4819300000000002
  1.58834
  1.70749
  1.8469900000000001
  1.9889
  2.6961500000000003
  4.2281
  5.75605
  7.14371
  8.36685
  9.4072
  0.469515
  0.505816
  0.7314149999999999
  1.00054
  1.11786
  1.35029
  1.62956
  1.7475299999999998
  1.87859
  2.03097
  2.18608
  2.34619
  3.1250299999999998
  4.7676799999999995
  6.40309
  7.85823
  9.12016
  10.2027
  0.006982230000000001
  0.823845
  0.8935569999999999
  1.2304300000000001
  1.33864
  1.63612
  1.92405
  2.0684299999999998
  2.23538
  2.4059299999999997
  2.5806
  2.75162
  3.6177499999999996
  5.39466
  7.10293
  8.616810000000001
  9.91816
  11.033
  0.759277
  0.816939
  1.14231
  1.4761600000000001
  1.64459
  1.97844
  2.28192
  2.46778
  2.6519099999999995
  2.84245
  3.0089699999999997
  3.17748
  4.15535
  6.07463
  7.860040000000001
  9.42683
  10.770199999999999
  11.9149
  0.793597
  1.04958
  1.42123
  1.82163
  2.00034
  2.34992
  2.73027
  2.93204
  3.13989
  3.29963
  3.51186
  3.7302999999999997
  4.78691
  6.825900000000001
  8.68615
  10.302100000000001
  11.680399999999999
  12.8553
  1.06581
  1.32393
  1.7256200000000002
  2.2203
  2.40792
  2.8212200000000003
  3.26771
  3.47583
  3.66072
  3.89188
  4.12891
  4.3646899999999995
  5.47948
  7.65402
  9.58381
  11.246300000000002
  12.672
  13.8795
  1.3308600000000002
  1.64809
  2.148
  2.68253
  2.90211
  3.3908199999999997
  3.8438600000000003
  4.0657
  4.320930000000001
  4.5662
  4.79844
  5.05144
  6.25486
  8.487820000000001
  10.511500000000002
  12.228699999999998
  13.6905
  14.8995
  1.6347999999999998
  2.08264
  2.60729
  3.24695
  3.51878
  4.01356
  4.5243400000000005
  4.80144
  5.05385
  5.31778
  5.5892100000000005
  5.8562199999999995
  7.10783
  9.46924
  11.537
  13.2929
  14.7806
  16.009900000000002
  2.10465
  2.5844400000000003
  3.25025
  3.94509
  4.24106
  4.75768
  5.3466499999999995
  5.621950000000001
  5.9141200000000005
  6.20383
  6.48083
  6.76361
  8.09078
  10.532
  12.6601
  14.448900000000002
  15.9603
  17.2085
  2.6684500000000004
  3.19194
  3.95908
  4.76506
  5.06152
  5.67659
  6.27851
  6.58995
  6.89663
  7.19812
  7.47063
  7.76823
  9.170639999999999
  11.689
  13.8663
  15.6842
  17.2201
  18.4847
  3.3649400000000003
  4.01829
  4.86327
  5.69005
  6.0320100000000005
  6.7137400000000005
  7.35626
  7.68058
  7.984109999999999
  8.30197
  8.59727
  8.90607
  10.3665
  12.991700000000002
  15.1901
  17.0367
  18.5952
  19.8736
  4.22914
  4.97902
  5.9248199999999995
  6.82097
  7.18957
  7.88616
  8.57986
  8.905520000000001
  9.23934
  9.577069999999999
  9.90803
  10.2261
  11.752699999999999
  14.439400000000001
  16.6781
  18.5424
  20.112000000000002
  21.4003
  5.3401700000000005
  6.14232
  7.13918
  8.13045
  8.51359
  9.24517
  9.95891
  10.3158
  10.6675
  11.0044
  11.3452
  11.677999999999999
  13.234100000000002
  15.964
  18.229100000000003
  20.1679
  21.744899999999998
  23.0415
  6.662459999999999
  7.558669999999999
  8.61645
  9.64316
  10.0383
  10.802
  11.5451
  11.9098
  12.265899999999998
  12.609000000000002
  12.959000000000001
  13.2994
  14.8722
  17.616300000000003
  19.9698
  21.9395
  23.5298
  24.8292
  8.31682
  9.21346
  10.300799999999999
  11.353499999999999
  11.763
  12.536700000000002
  13.2823
  13.638699999999998
  14.0047
  14.3583
  14.728299999999999
  15.0572
  16.685
  19.4523
  21.761100000000003
  23.706799999999998
  25.338
  26.632600000000004
  10.3504
  11.267999999999999
  12.3495
  13.3764
  13.770199999999999
  14.548800000000002
  15.2802
  15.6602
  16.0307
  16.3779
  16.7275
  17.0554
  18.703599999999998
  21.463800000000003
  23.7519
  25.692600000000002
  27.3187
  28.606399999999997
  0.000586904
  0.000603144
  0.000620465
  0.000639117
  0.00397751
  0.00606294
  0.00841112
  0.00978993
  0.0120042
  0.0140094
  0.0170488
  0.0216524
  0.0565857
  0.18083100000000002
  0.372592
  0.598084
  0.8609709999999999
  1.1463700000000001
  0.00414632
  0.0071654
  0.00911773
  0.00999474
  0.0120915
  0.0171949
  0.025115
  0.0302108
  0.0363325
  0.0475159
  0.057970100000000004
  0.06367790000000001
  0.155873
  0.39750300000000005
  0.7154630000000001
  1.09822
  1.51919
  1.98176
  0.00172646
  0.00174619
  0.0017671
  0.0171363
  0.020703700000000002
  0.030118299999999997
  0.0437584
  0.0573032
  0.07032390000000001
  0.0754141
  0.0908114
  0.11325900000000001
  0.22671
  0.53323
  0.9643200000000001
  1.44656
  1.9710400000000001
  2.52481
  0.00414325
  0.022105700000000002
  0.0261921
  0.028220900000000004
  0.0351565
  0.0539701
  0.0767706
  0.100039
  0.102335
  0.133654
  0.151143
  0.18071
  0.334733
  0.739804
  1.25688
  1.8663800000000001
  2.5174600000000003
  3.16976
  0.0219639
  0.0271903
  0.029885799999999997
  0.0516462
  0.0650347
  0.101666
  0.143181
  0.141603
  0.182227
  0.20763500000000001
  0.242958
  0.288626
  0.47903300000000004
  1.00587
  1.64483
  2.38559
  3.17307
  3.9273399999999996
  0.0492854
  0.0575045
  0.0621959
  0.0952339
  0.12063499999999999
  0.161454
  0.219176
  0.239984
  0.292572
  0.30684100000000003
  0.368992
  0.41198700000000005
  0.686383
  1.35475
  2.1606899999999998
  3.0341199999999997
  3.9496300000000004
  4.8115499999999995
  0.00906308
  0.126083
  0.143558
  0.152696
  0.194359
  0.257527
  0.33172199999999996
  0.390289
  0.42381500000000005
  0.48334000000000005
  0.55428
  0.6129140000000001
  0.9317359999999999
  1.8010499999999998
  2.75623
  3.81637
  4.85288
  5.82678
  0.00649987
  0.211492
  0.24021499999999998
  0.255485
  0.295502
  0.41943199999999997
  0.512482
  0.581483
  0.64849
  0.7187699999999999
  0.797712
  0.870245
  1.31455
  2.31894
  3.5079399999999996
  4.75721
  5.9335
  7.01147
  0.0181531
  0.201725
  0.217059
  0.325158
  0.38569400000000004
  0.49983299999999997
  0.638053
  0.711649
  0.7812009999999999
  0.8555790000000001
  0.954377
  1.0540399999999999
  1.52729
  2.6562900000000003
  3.95528
  5.292910000000001
  6.53619
  7.65437
  0.152828
  0.164379
  0.375103
  0.399304
  0.47868099999999997
  0.607495
  0.7788590000000001
  0.853863
  0.9370959999999999
  1.04247
  1.12356
  1.22263
  1.78314
  3.06014
  4.44786
  5.85596
  7.185420000000001
  8.352820000000001
  0.0208928
  0.336285
  0.361703
  0.505028
  0.602109
  0.747875
  0.9352280000000001
  1.02672
  1.14311
  1.21742
  1.33827
  1.4599600000000001
  2.08363
  3.4917399999999996
  4.99438
  6.489389999999999
  7.883039999999999
  9.10697
  0.277902
  0.297909
  0.47035699999999997
  0.637114
  0.730981
  0.920302
  1.12836
  1.22126
  1.33823
  1.46868
  1.6011199999999999
  1.7149299999999998
  2.42851
  3.9500900000000003
  5.59629
  7.17922
  8.63589
  9.90356
  0.370591
  0.39683799999999997
  0.581341
  0.805463
  0.9067419999999999
  1.14385
  1.3445799999999999
  1.47125
  1.6103100000000001
  1.7566
  1.88196
  2.02539
  2.8199
  4.49296
  6.253550000000001
  7.92152
  9.43643
  10.7486
  0.342156
  0.512034
  0.7163729999999999
  0.998072
  1.1207099999999999
  1.36376
  1.61792
  1.7700200000000001
  1.90363
  2.06832
  2.22345
  2.39174
  3.22298
  5.10016
  6.98589
  8.72456
  10.2963
  11.648
  0.46853900000000004
  0.636913
  0.9058660000000001
  1.21398
  1.368
  1.6169
  1.92828
  2.10786
  2.26099
  2.42938
  2.6163
  2.7757
  3.7407299999999997
  5.742100000000001
  7.7232899999999995
  9.55001
  11.15
  12.570599999999999
  0.600008
  0.8307420000000001
  1.11062
  1.51085
  1.60681
  1.9401499999999998
  2.32833
  2.49657
  2.69873
  2.87166
  3.05615
  3.27406
  4.30048
  6.49272
  8.55871
  10.478399999999999
  12.161
  13.603299999999999
  0.7761150000000001
  1.02715
  1.39905
  1.80668
  1.98133
  2.36451
  2.7665800000000003
  2.94784
  3.18052
  3.38207
  3.61848
  3.85432
  5.00022
  7.32946
  9.488579999999999
  11.491
  13.223099999999999
  14.694
  0.991028
  1.27719
  1.72967
  2.1977
  2.42262
  2.83182
  3.2802
  3.4980900000000004
  3.7549400000000004
  4.0111
  4.2663400000000005
  4.52276
  5.73801
  8.22119
  10.5032
  12.583699999999999
  14.3546
  15.8576
  1.266
  1.6316
  2.12848
  2.6782600000000003
  2.89997
  3.3882499999999998
  3.9003300000000003
  4.17596
  4.45521
  4.696619999999999
  4.97846
  5.236689999999999
  6.61262
  9.24116
  11.619200000000001
  13.7421
  15.5576
  17.086199999999998
  1.61643
  2.04749
  2.63847
  3.25163
  3.53932
  4.0585700000000005
  4.66244
  4.92543
  5.23613
  5.54427
  5.822
  6.08735
  7.57968
  10.3506
  12.8431
  15.0184
  16.8632
  18.415499999999998
  2.0713399999999997
  2.56986
  3.21759
  3.97324
  4.30151
  4.89569
  5.520639999999999
  5.8555399999999995
  6.163880000000001
  6.45477
  6.784890000000001
  7.11739
  8.70083
  11.585799999999999
  14.1706
  16.3907
  18.2733
  19.849800000000002
  2.62608
  3.21668
  4.00581
  4.82788
  5.16851
  5.84385
  6.56972
  6.86217
  7.23062
  7.5911800000000005
  7.941190000000001
  8.292580000000001
  9.94461
  12.9636
  15.6045
  17.8777
  19.8312
  21.4302
  3.35248
  4.02306
  4.971019999999999
  5.86034
  6.24934
  6.988659999999999
  7.73695
  8.0927
  8.46551
  8.8389
  9.20753
  9.57272
  11.2796
  14.4201
  17.0982
  19.391
  21.336599999999997
  22.944899999999997
  4.26919
  5.08662
  6.078329999999999
  7.1114999999999995
  7.5046
  8.33088
  9.10838
  9.51221
  9.9084
  10.2952
  10.6338
  11.0164
  12.8376
  16.0543
  18.790599999999998
  21.1241
  23.087
  24.7073
  0.00138074
  0.00138576
  0.00139111
  0.00139689
  0.0032432499999999996
  0.00476076
  0.00644551
  0.00778892
  0.0091512
  0.0107965
  0.012881
  0.0154602
  0.0307558
  0.113841
  0.26271100000000003
  0.447816
  0.6592990000000001
  0.908269
  0.00302475
  0.0030266900000000003
  0.0070264
  0.00774613
  0.00967901
  0.0134456
  0.0167605
  0.0210377
  0.0243711
  0.0276371
  0.0338114
  0.0388509
  0.09075509999999999
  0.257297
  0.5175
  0.819074
  1.18137
  1.56678
  0.000969491
  0.00958989
  0.0119499
  0.0130365
  0.0152108
  0.021478
  0.0290996
  0.0320656
  0.0388941
  0.046292299999999995
  0.051391799999999994
  0.0637688
  0.135227
  0.36890700000000004
  0.6891379999999999
  1.08213
  1.5280699999999998
  2.01057
  0.00176473
  0.0017737
  0.0192682
  0.020868
  0.0252065
  0.0330869
  0.0463938
  0.0531876
  0.0670407
  0.0705362
  0.08678720000000001
  0.103852
  0.20707
  0.515195
  0.921365
  1.4187
  1.96321
  2.54214
  5.5135999999999994e-11
  0.020711
  0.022877900000000003
  0.0340404
  0.0401006
  0.056343500000000005
  0.07134360000000001
  0.0914068
  0.0959744
  0.12135699999999999
  0.13842100000000002
  0.16288699999999998
  0.299171
  0.706943
  1.2203600000000001
  1.83258
  2.49098
  3.17542
  0.028514499999999998
  0.0345451
  0.0377444
  0.056335800000000005
  0.068715
  0.0915357
  0.11669299999999999
  0.146223
  0.160236
  0.197835
  0.20796800000000001
  0.25451599999999996
  0.444677
  0.943162
  1.57944
  2.30314
  3.1144600000000002
  3.91596
  0.0458594
  0.05423409999999999
  0.0588497
  0.08556599999999999
  0.105603
  0.140383
  0.198893
  0.216643
  0.262926
  0.28646699999999997
  0.331342
  0.373954
  0.633837
  1.2420499999999999
  2.05218
  2.9247199999999998
  3.87138
  4.79217
  0.0775593
  0.08987360000000001
  0.09685079999999999
  0.138132
  0.16843
  0.232025
  0.30439
  0.33978200000000003
  0.39858699999999997
  0.449661
  0.497883
  0.563648
  0.871837
  1.6673900000000001
  2.64409
  3.68413
  4.75656
  5.80516
  0.0972275
  0.112179
  0.120691
  0.18309899999999998
  0.214944
  0.289128
  0.373949
  0.42410600000000004
  0.48795299999999997
  0.544245
  0.602715
  0.6788219999999999
  1.03234
  1.89695
  2.96814
  4.12046
  5.26112
  6.37173
  0.09853189999999999
  0.10594300000000001
  0.15765
  0.224326
  0.27754100000000004
  0.366338
  0.46380499999999997
  0.5319740000000001
  0.57821
  0.657304
  0.7158209999999999
  0.7913030000000001
  1.2027299999999999
  2.1525499999999997
  3.3243
  4.6003300000000005
  5.8192200000000005
  6.98826
  0.0092135
  0.186165
  0.199588
  0.283161
  0.34578600000000004
  0.446467
  0.568025
  0.632452
  0.718069
  0.771841
  0.861178
  0.955303
  1.39773
  2.49755
  3.7582600000000004
  5.10252
  6.4231799999999994
  7.65241
  0.147899
  0.158615
  0.25407399999999997
  0.36507199999999995
  0.42220100000000005
  0.55774
  0.693431
  0.783104
  0.84578
  0.94108
  1.0231000000000001
  1.12287
  1.62822
  2.86096
  4.2341500000000005
  5.67831
  7.07836
  8.36255
  0.197563
  0.211313
  0.330011
  0.45636200000000005
  0.523164
  0.680969
  0.8343989999999999
  0.9246909999999999
  1.03027
  1.11557
  1.20866
  1.32171
  1.87832
  3.2648
  4.76087
  6.3081700000000005
  7.78279
  9.12208
  0.193332
  0.275353
  0.41662
  0.5764119999999999
  0.651045
  0.8343210000000001
  1.01329
  1.1273
  1.22061
  1.3420400000000001
  1.46645
  1.57341
  2.19732
  3.7217000000000002
  5.3444899999999995
  6.97453
  8.54129
  9.936069999999999
  0.254697
  0.364391
  0.5199090000000001
  0.7077030000000001
  0.8171080000000001
  0.984953
  1.2135500000000001
  1.34558
  1.4461000000000002
  1.5793000000000001
  1.66669
  1.8186000000000002
  2.55708
  4.18963
  5.87925
  7.72606
  9.36163
  10.811
  0.32770200000000005
  0.444133
  0.63715
  0.898716
  0.960957
  1.19255
  1.4398
  1.58896
  1.71185
  1.83527
  2.00076
  2.16466
  2.94619
  4.77071
  6.60741
  8.54063
  10.24
  11.746099999999998
  0.427222
  0.575431
  0.799543
  1.05968
  1.16655
  1.4702899999999999
  1.74958
  1.85124
  2.02452
  2.20313
  2.38189
  2.56096
  3.40519
  5.3757600000000005
  7.41125
  9.40196
  11.1904
  12.7422
  0.5394599999999999
  0.7341150000000001
  0.999911
  1.29309
  1.4572399999999999
  1.75326
  2.0469399999999998
  2.2342500000000003
  2.42606
  2.5848
  2.78579
  2.94935
  3.98825
  6.09399
  8.286430000000001
  10.3604
  12.2065
  13.8016
  0.696614
  0.905979
  1.2183199999999998
  1.61359
  1.75333
  2.06538
  2.47074
  2.63897
  2.85615
  3.03106
  3.2617599999999998
  3.4841800000000003
  4.6243799999999995
  6.92502
  9.23976
  11.3936
  13.304
  14.938099999999999
  0.858744
  1.14304
  1.50474
  1.9469
  2.14873
  2.51456
  2.92868
  3.1618
  3.3607299999999998
  3.6107400000000003
  3.85132
  4.0702
  5.3152
  7.73285
  10.279200000000001
  12.5106
  14.4716
  16.1441
  1.12268
  1.41445
  1.85975
  2.33254
  2.56034
  3.0444799999999996
  3.47011
  3.7391500000000004
  4.0091399999999995
  4.23916
  4.51082
  4.7866
  6.10986
  8.76998
  11.390799999999999
  13.7141
  15.7246
  17.4327
  1.37715
  1.77314
  2.30307
  2.8647000000000005
  3.12904
  3.64055
  4.16829
  4.45966
  4.71583
  5.01127
  5.30887
  5.60808
  7.00554
  9.91028
  12.626199999999999
  15.0166
  17.0682
  18.808699999999998
  1.78385
  2.22071
  2.82543
  3.4802
  3.78547
  4.36151
  4.97437
  5.246029999999999
  5.57359
  5.901599999999999
  6.2283100000000005
  6.50044
  8.08599
  11.1381
  13.896099999999999
  16.3838
  18.506500000000003
  20.2838
  2.2375
  2.77649
  3.47406
  4.271240000000001
  4.56774
  5.23379
  5.90017
  6.248920000000001
  6.60327
  6.90157
  7.25756
  7.612010000000001
  9.31194
  12.4694
  15.394200000000001
  17.9165
  20.0705
  21.890900000000002
  0.00187639
  0.00187714
  0.0018779399999999998
  0.00243932
  0.0029238199999999997
  0.00415814
  0.00564042
  0.0066960399999999995
  0.00773049
  0.009212099999999999
  0.0109344
  0.0128698
  0.025434199999999997
  0.08044069999999999
  0.200461
  0.35551900000000003
  0.533187
  0.7353019999999999
  0.00225075
  0.00225224
  0.0060650700000000005
  0.00670231
  0.00867702
  0.011324399999999998
  0.0150065
  0.017208
  0.0199231
  0.0225908
  0.025492400000000002
  0.029786
  0.056642
  0.19006900000000002
  0.397617
  0.658095
  0.956634
  1.29738
  0.000247298
  0.000259318
  0.00997328
  0.0109216
  0.012867900000000002
  0.0186751
  0.022867600000000002
  0.0266776
  0.0306255
  0.0353997
  0.039351
  0.04801999999999999
  0.0934771
  0.27523
  0.552226
  0.876645
  1.25343
  1.66902
  0.0
  0.0
  0.0164557
  0.0178617
  0.0217625
  0.026943800000000004
  0.0361743
  0.0418484
  0.0477768
  0.053056200000000005
  0.0659645
  0.0746428
  0.142589
  0.383152
  0.7355670000000001
  1.1399
  1.6142500000000002
  2.11207
  0.00794388
  0.0175581
  0.019459999999999998
  0.0287088
  0.0315977
  0.0428331
  0.0562657
  0.06420819999999999
  0.0702312
  0.0865733
  0.0963833
  0.111937
  0.208755
  0.5400240000000001
  0.957792
  1.4674
  2.02493
  2.63971
  0.00763462
  0.0282111
  0.030955499999999997
  0.044923700000000004
  0.052640599999999996
  0.066221
  0.08389350000000001
  0.10236700000000001
  0.120358
  0.129384
  0.150266
  0.179163
  0.319775
  0.728708
  1.26115
  1.86452
  2.54475
  3.27182
  0.0360812
  0.0432726
  0.0471168
  0.0661467
  0.0781279
  0.100496
  0.136798
  0.154397
  0.178317
  0.205197
  0.227316
  0.26648099999999997
  0.466937
  0.962508
  1.6284
  2.3741499999999998
  3.1875299999999998
  4.0314
  0.013998900000000002
  0.06782099999999999
  0.0733675
  0.100287
  0.118354
  0.162311
  0.212848
  0.23192000000000002
  0.27111799999999997
  0.30885
  0.34604999999999997
  0.39734699999999995
  0.642088
  1.29424
  2.06635
  2.9811
  3.9702100000000002
  4.94805
  5.5638399999999995e-11
  0.0833109
  0.08991379999999999
  0.128916
  0.145828
  0.207238
  0.25568
  0.29754
  0.33859
  0.378913
  0.422999
  0.4833
  0.767151
  1.4756200000000002
  2.32872
  3.3390199999999997
  4.411309999999999
  5.45431
  0.0908282
  0.10485699999999999
  0.11282
  0.159358
  0.18773900000000002
  0.24478999999999998
  0.32473599999999997
  0.369607
  0.412866
  0.46098799999999995
  0.524026
  0.565892
  0.89826
  1.70072
  2.6411399999999996
  3.7419700000000002
  4.89306
  6.001079999999999
  0.0902235
  0.0971707
  0.145436
  0.197711
  0.238135
  0.300919
  0.39995800000000004
  0.450463
  0.503673
  0.552856
  0.615487
  0.689828
  1.04761
  1.95354
  2.9883699999999997
  4.18541
  5.41643
  6.59222
  0.10918599999999999
  0.11737
  0.178204
  0.241194
  0.293664
  0.37725499999999995
  0.478396
  0.550136
  0.5956049999999999
  0.671756
  0.732166
  0.815167
  1.22319
  2.2183
  3.3788099999999996
  4.67312
  5.966670000000001
  7.21431
  0.11705
  0.14978
  0.225146
  0.307479
  0.360308
  0.466387
  0.601291
  0.6506789999999999
  0.7338169999999999
  0.7995310000000001
  0.873625
  0.964862
  1.40985
  2.51649
  3.8037799999999997
  5.207050000000001
  6.58821
  7.894769999999999
  0.147863
  0.19496
  0.279788
  0.395941
  0.45035200000000003
  0.586064
  0.7127370000000001
  0.8023170000000001
  0.875193
  0.954512
  1.0529600000000001
  1.15458
  1.65685
  2.86314
  4.26557
  5.796889999999999
  7.261570000000001
  8.63459
  0.179538
  0.24521300000000001
  0.358135
  0.472607
  0.557283
  0.685557
  0.857243
  0.943207
  1.01922
  1.12645
  1.21293
  1.3345099999999999
  1.9022700000000001
  3.25649
  4.77715
  6.39737
  7.9736400000000005
  9.41226
  0.22920100000000002
  0.305412
  0.43551900000000004
  0.608938
  0.6871160000000001
  0.8270770000000001
  1.0222799999999999
  1.11366
  1.23289
  1.33094
  1.44166
  1.5708199999999999
  2.1989900000000002
  3.6956900000000004
  5.38096
  7.105370000000001
  8.74689
  10.265799999999999
  0.291985
  0.388395
  0.549239
  0.71881
  0.82069
  1.01109
  1.2220199999999999
  1.32189
  1.4605000000000001
  1.57968
  1.72082
  1.84964
  2.56055
  4.20528
  6.015639999999999
  7.84557
  9.606069999999999
  11.1789
  0.354645
  0.485111
  0.682867
  0.901922
  1.00463
  1.2291800000000002
  1.45526
  1.58284
  1.73236
  1.8378
  1.99649
  2.12005
  2.98027
  4.70461
  6.7474
  8.68369
  10.517100000000001
  12.1429
  0.46765900000000005
  0.614283
  0.813869
  1.1045099999999999
  1.22025
  1.4438499999999999
  1.7410400000000001
  1.90271
  2.02149
  2.1543
  2.3328800000000003
  2.51221
  3.4290800000000004
  5.36889
  7.557440000000001
  9.603
  11.5068
  13.1847
  0.576147
  0.7707689999999999
  1.02608
  1.33542
  1.4640700000000002
  1.76872
  2.04697
  2.22904
  2.3790899999999997
  2.5696
  2.7666500000000003
  2.96541
  3.98036
  6.12856
  8.41505
  10.5973
  12.5695
  14.2995
  0.7420140000000001
  0.936038
  1.2716500000000002
  1.58806
  1.77048
  2.11669
  2.42039
  2.62968
  2.8352999999999997
  3.0498399999999997
  3.26641
  3.4873200000000004
  4.55602
  6.96908
  9.35575
  11.6612
  13.7169
  15.486099999999999
  0.943828
  1.17202
  1.55604
  1.9433600000000002
  2.14399
  2.50756
  2.91613
  3.1388499999999997
  3.37329
  3.6080799999999997
  3.8495600000000003
  4.06236
  5.28184
  7.87845
  10.443499999999998
  12.8354
  14.9525
  16.7682
  1.19079
  1.4605199999999998
  1.89982
  2.35079
  2.58183
  3.05707
  3.48803
  3.74833
  3.9794600000000004
  4.25202
  4.51712
  4.79379
  6.105499999999999
  8.89635
  11.661900000000001
  14.1008
  16.2996
  18.1705
  1.4773699999999999
  1.8443100000000001
  2.34356
  2.8964600000000003
  3.15082
  3.6073500000000003
  4.17693
  4.43274
  4.7298599999999995
  5.01814
  5.3132600000000005
  5.5749699999999995
  7.037179999999999
  10.079600000000001
  12.9603
  15.486500000000001
  17.7276
  19.633599999999998
  0.0016650200000000001
  0.0016657900000000001
  0.00166661
  0.00225607
  0.0025519199999999996
  0.00379974
  0.00529623
  0.00593815
  0.0070282
  0.00854254
  0.00946854
  0.011234200000000001
  0.022518600000000003
  0.06386320000000001
  0.159132
  0.296219
  0.44791800000000004
  0.619874
  0.00164398
  0.00164561
  0.005412360000000001
  0.00599293
  0.00751587
  0.0102793
  0.013657200000000001
  0.0151813
  0.0171813
  0.0200878
  0.0230064
  0.0261197
  0.0476689
  0.154216
  0.326582
  0.55276
  0.809038
  1.10043
  3.2935300000000005e-07
  3.2935300000000005e-07
  0.009037469999999999
  0.00990884
  0.0120354
  0.016413999999999998
  0.0204474
  0.0239216
  0.0275185
  0.030365899999999998
  0.034905
  0.0415368
  0.0750946
  0.218065
  0.453412
  0.735915
  1.054
  1.41977
  0.00438111
  0.0043814399999999995
  0.014483
  0.0157566
  0.0191008
  0.0240721
  0.0320647
  0.0371317
  0.0392906
  0.0468807
  0.0520802
  0.0623412
  0.111545
  0.305084
  0.606788
  0.958006
  1.3578899999999998
  1.80556
  0.00326317
  0.00326494
  0.021978499999999998
  0.023787199999999998
  0.0281024
  0.0381492
  0.046487299999999995
  0.055007900000000005
  0.060099
  0.0713608
  0.0788523
  0.0902945
  0.171524
  0.43347499999999994
  0.7931529999999999
  1.2334
  1.71874
  2.25799
  3.64932e-11
  0.0244617
  0.0269265
  0.0381992
  0.042865799999999996
  0.057012900000000005
  0.07128960000000001
  0.08434649999999999
  0.0937848
  0.10381800000000001
  0.11846399999999999
  0.139577
  0.246803
  0.5945280000000001
  1.0486199999999999
  1.58272
  2.17808
  2.8196
  0.0
  0.0
  0.052687099999999994
  0.056380999999999994
  0.0630051
  0.0839224
  0.110235
  0.122721
  0.139789
  0.15890100000000001
  0.17900400000000002
  0.204765
  0.362509
  0.7813460000000001
  1.3555199999999998
  1.98395
  2.7152
  3.46698
  0.0155999
  0.0558732
  0.060667200000000004
  0.0823603
  0.0983831
  0.12712400000000001
  0.157444
  0.188749
  0.208538
  0.235419
  0.271584
  0.312103
  0.5025390000000001
  1.0390000000000001
  1.72096
  2.51554
  3.3780200000000002
  4.281429999999999
  0.00843354
  0.0711679
  0.0769606
  0.105946
  0.118765
  0.161997
  0.19544699999999998
  0.226677
  0.257481
  0.288701
  0.33151200000000003
  0.376971
  0.602295
  1.18779
  1.95393
  2.8235
  3.7603199999999997
  4.7291
  0.07456360000000001
  0.08669679999999999
  0.09353310000000001
  0.129916
  0.143432
  0.19581099999999999
  0.24710000000000001
  0.28069700000000003
  0.314393
  0.35135
  0.401916
  0.44201
  0.708348
  1.37366
  2.20492
  3.1609
  4.17494
  5.21086
  0.020063300000000003
  0.0836092
  0.116094
  0.156686
  0.18503
  0.233545
  0.305845
  0.342135
  0.382668
  0.43674199999999996
  0.47173200000000004
  0.532527
  0.829533
  1.58178
  2.4915700000000003
  3.53767
  4.62928
  5.7298599999999995
  0.0956716
  0.10289899999999999
  0.143688
  0.19666499999999998
  0.225118
  0.293641
  0.372813
  0.41771
  0.460092
  0.514728
  0.580768
  0.631967
  0.972245
  1.78649
  2.78952
  3.95281
  5.12844
  6.298690000000001
  0.0995464
  0.126243
  0.176688
  0.245776
  0.27464500000000003
  0.36062600000000006
  0.455645
  0.495415
  0.561092
  0.615125
  0.6876000000000001
  0.7502169999999999
  1.12152
  2.0489599999999997
  3.1527499999999997
  4.38671
  5.6727099999999995
  6.91321
  0.1265
  0.158973
  0.21924
  0.300745
  0.342492
  0.444089
  0.541193
  0.61307
  0.671862
  0.737441
  0.818262
  0.901339
  1.32084
  2.31028
  3.5522199999999997
  4.85524
  6.24662
  7.5658
  0.147723
  0.194006
  0.268748
  0.365378
  0.41633699999999996
  0.524371
  0.650811
  0.73677
  0.782974
  0.8725419999999999
  0.942434
  1.04302
  1.51762
  2.64045
  3.95038
  5.38904
  6.88687
  8.28335
  0.184285
  0.236996
  0.335156
  0.45543
  0.515525
  0.6427620000000001
  0.7887900000000001
  0.856541
  0.952255
  1.03107
  1.13938
  1.23061
  1.75679
  2.9894499999999997
  4.45669
  6.00679
  7.5939700000000006
  9.04079
  0.22986499999999999
  0.295796
  0.410084
  0.562542
  0.616919
  0.7812300000000001
  0.936028
  1.03989
  1.12818
  1.2265300000000001
  1.34231
  1.4231800000000001
  2.04398
  3.37187
  4.98639
  6.68375
  8.35437
  9.863909999999999
  0.2754
  0.370815
  0.509194
  0.675419
  0.769401
  0.916535
  1.1129900000000001
  1.23726
  1.34263
  1.42643
  1.55832
  1.65902
  2.3550299999999997
  3.83992
  5.6132100000000005
  7.42682
  9.1847
  10.7632
  0.358052
  0.45844700000000005
  0.63334
  0.828781
  0.920889
  1.12287
  1.33825
  1.46937
  1.58976
  1.6724199999999998
  1.8193899999999998
  1.96844
  2.73307
  4.3922
  6.2604
  8.23524
  10.065
  11.725999999999999
  0.436787
  0.580892
  0.76582
  0.983498
  1.10456
  1.34708
  1.5693000000000001
  1.7177
  1.83822
  1.99785
  2.16093
  2.32481
  3.14132
  5.017869999999999
  7.03423
  9.0897
  11.011400000000002
  12.7445
  0.567257
  0.698244
  0.951309
  1.22119
  1.33652
  1.6144100000000001
  1.85367
  2.02145
  2.19464
  2.37061
  2.54846
  2.73062
  3.60885
  5.67746
  7.833869999999999
  10.0381
  12.054
  13.8466
  0.711967
  0.9009900000000001
  1.16875
  1.47812
  1.61689
  1.8766100000000001
  2.23543
  2.41973
  2.6103500000000004
  2.80357
  2.96852
  3.1727
  4.16464
  6.45848
  8.7867
  11.0974
  13.1886
  15.0352
  0.899427
  1.11464
  1.4232
  1.75814
  1.9178600000000001
  2.29138
  2.61346
  2.82389
  3.0362999999999998
  3.2537599999999998
  3.4776100000000003
  3.7029300000000003
  4.83423
  7.312670000000001
  9.8163
  12.2573
  14.448599999999999
  16.3462
  1.14043
  1.37854
  1.74793
  2.15761
  2.34757
  2.6776
  3.13048
  3.36602
  3.62248
  3.8603699999999996
  4.10404
  4.32145
  5.56981
  8.27639
  10.975999999999999
  13.515899999999998
  15.773599999999998
  17.7252
  0.000702744
  0.000706131
  0.00183207
  0.00228238
  0.00245225
  0.0036181200000000003
  0.00480423
  0.00558795
  0.00661717
  0.007470569999999999
  0.00870263
  0.010272300000000002
  0.018557
  0.053799599999999996
  0.13476000000000002
  0.2545
  0.38385800000000003
  0.540993
  0.0019294
  0.00192988
  0.0053736700000000005
  0.00593343
  0.006926020000000001
  0.009348509999999999
  0.012578
  0.013637900000000001
  0.0159941
  0.0182523
  0.020491799999999998
  0.0235963
  0.0418481
  0.12952
  0.276292
  0.47668999999999995
  0.6969289999999999
  0.955256
  0.00013287
  0.00420842
  0.00855986
  0.00938304
  0.0111845
  0.014819800000000001
  0.0189966
  0.0215869
  0.0248178
  0.027149100000000002
  0.032385899999999995
  0.0366506
  0.0656764
  0.18215699999999999
  0.384805
  0.627119
  0.9155719999999999
  1.23847
  2.52376e-11